216

Si -20.0 0.0 0.0
Si -15.0 0.0 0.0
Fe -10.0 0.0 0.0
Si -5.0 0.0 0.0
Si -20.0 5.0 0.0
Si -15.0 5.0 0.0
Si -10.0 5.0 0.0
Si -5.0 5.0 0.0
Si -20.0 10.0 0.0
Si -15.0 10.0 0.0
Si -10.0 10.0 0.0
Fe -4.999999999999999 10.0 0.0
Si 0.0 0.0 0.0
Si 5.0 0.0 0.0
Fe 10.0 0.0 0.0
Si 15.0 0.0 0.0
Si 3.061616997868383e-16 5.0 0.0
Si 5.0 5.0 0.0
Si 10.0 5.0 0.0
Si 15.0 5.0 0.0
Si 6.123233995736766e-16 10.0 0.0
Si 5.000000000000001 10.0 0.0
Si 10.0 10.0 0.0
Fe 15.0 10.0 0.0
Si 20.0 0.0 0.0
Si 25.0 0.0 0.0
Fe 30.0 0.0 0.0
Si 35.0 0.0 0.0
Si 20.0 5.0 0.0
Si 25.0 5.0 0.0
Si 30.0 5.0 0.0
Si 35.0 5.0 0.0
Si 20.0 10.0 0.0
Si 25.0 10.0 0.0
Si 30.0 10.0 0.0
Fe 35.0 10.0 0.0
Si -20.0 -15.0 0.0
Si -15.000000000000002 -15.0 0.0
Fe -10.000000000000002 -15.0 0.0
Si -5.000000000000001 -15.0 0.0
Si -20.0 -10.0 0.0
Si -15.0 -10.0 0.0
Si -10.0 -10.0 0.0
Si -5.000000000000001 -10.0 0.0
Si -20.0 -5.0 0.0
Si -15.0 -5.0 0.0
Si -10.0 -5.0 0.0
Fe -5.0 -5.0 0.0
Si -9.18485099360515e-16 -15.0 0.0
Si 4.999999999999999 -15.0 0.0
Fe 9.999999999999998 -15.0 0.0
Si 14.999999999999998 -15.0 0.0
Si -6.123233995736766e-16 -10.0 0.0
Si 4.999999999999999 -10.0 0.0
Si 10.0 -10.0 0.0
Si 15.0 -10.0 0.0
Si -3.061616997868383e-16 -5.0 0.0
Si 5.0 -5.0 0.0
Si 10.0 -5.0 0.0
Fe 15.0 -5.0 0.0
Si 20.0 -15.0 0.0
Si 25.0 -15.0 0.0
Fe 30.0 -15.0 0.0
Si 35.0 -15.0 0.0
Si 20.0 -10.0 0.0
Si 25.0 -10.0 0.0
Si 30.0 -10.0 0.0
Si 35.0 -10.0 0.0
Si 20.0 -5.0 0.0
Si 25.0 -5.0 0.0
Si 30.0 -5.0 0.0
Fe 35.0 -5.0 0.0
Si -20.0 15.0 0.0
Si -14.999999999999998 15.0 0.0
Fe -9.999999999999998 15.0 0.0
Si -4.999999999999999 15.0 0.0
Si -20.0 20.0 0.0
Si -14.999999999999998 20.0 0.0
Si -9.999999999999998 20.0 0.0
Si -4.999999999999999 20.0 0.0
Si -20.0 25.0 0.0
Si -14.999999999999998 25.0 0.0
Si -9.999999999999998 25.0 0.0
Fe -4.999999999999998 25.0 0.0
Si 9.18485099360515e-16 15.0 0.0
Si 5.000000000000001 15.0 0.0
Fe 10.000000000000002 15.0 0.0
Si 15.000000000000002 15.0 0.0
Si 1.2246467991473533e-15 20.0 0.0
Si 5.000000000000001 20.0 0.0
Si 10.000000000000002 20.0 0.0
Si 15.000000000000002 20.0 0.0
Si 1.5308084989341915e-15 25.0 0.0
Si 5.000000000000002 25.0 0.0
Si 10.000000000000002 25.0 0.0
Fe 15.000000000000002 25.0 0.0
Si 20.0 15.0 0.0
Si 25.0 15.0 0.0
Fe 30.0 15.0 0.0
Si 35.0 15.0 0.0
Si 20.0 20.0 0.0
Si 25.0 20.0 0.0
Si 30.0 20.0 0.0
Si 35.0 20.0 0.0
Si 20.0 25.0 0.0
Si 25.0 25.0 0.0
Si 30.0 25.0 0.0
Fe 35.0 25.0 0.0
Si -20.0 0.0 100.0
Si -15.0 0.0 100.0
Fe -10.0 0.0 100.0
Si -5.0 0.0 100.0
Si -20.0 5.0 100.0
Si -15.0 5.0 100.0
Si -10.0 5.0 100.0
Si -5.0 5.0 100.0
Si -20.0 10.0 100.0
Si -15.0 10.0 100.0
Si -10.0 10.0 100.0
Fe -4.999999999999999 10.0 100.0
Si 0.0 0.0 100.0
Si 5.0 0.0 100.0
Fe 10.0 0.0 100.0
Si 15.0 0.0 100.0
Si 3.061616997868383e-16 5.0 100.0
Si 5.0 5.0 100.0
Si 10.0 5.0 100.0
Si 15.0 5.0 100.0
Si 6.123233995736766e-16 10.0 100.0
Si 5.000000000000001 10.0 100.0
Si 10.0 10.0 100.0
Fe 15.0 10.0 100.0
Si 20.0 0.0 100.0
Si 25.0 0.0 100.0
Fe 30.0 0.0 100.0
Si 35.0 0.0 100.0
Si 20.0 5.0 100.0
Si 25.0 5.0 100.0
Si 30.0 5.0 100.0
Si 35.0 5.0 100.0
Si 20.0 10.0 100.0
Si 25.0 10.0 100.0
Si 30.0 10.0 100.0
Fe 35.0 10.0 100.0
Si -20.0 -15.0 100.0
Si -15.000000000000002 -15.0 100.0
Fe -10.000000000000002 -15.0 100.0
Si -5.000000000000001 -15.0 100.0
Si -20.0 -10.0 100.0
Si -15.0 -10.0 100.0
Si -10.0 -10.0 100.0
Si -5.000000000000001 -10.0 100.0
Si -20.0 -5.0 100.0
Si -15.0 -5.0 100.0
Si -10.0 -5.0 100.0
Fe -5.0 -5.0 100.0
Si -9.18485099360515e-16 -15.0 100.0
Si 4.999999999999999 -15.0 100.0
Fe 9.999999999999998 -15.0 100.0
Si 14.999999999999998 -15.0 100.0
Si -6.123233995736766e-16 -10.0 100.0
Si 4.999999999999999 -10.0 100.0
Si 10.0 -10.0 100.0
Si 15.0 -10.0 100.0
Si -3.061616997868383e-16 -5.0 100.0
Si 5.0 -5.0 100.0
Si 10.0 -5.0 100.0
Fe 15.0 -5.0 100.0
Si 20.0 -15.0 100.0
Si 25.0 -15.0 100.0
Fe 30.0 -15.0 100.0
Si 35.0 -15.0 100.0
Si 20.0 -10.0 100.0
Si 25.0 -10.0 100.0
Si 30.0 -10.0 100.0
Si 35.0 -10.0 100.0
Si 20.0 -5.0 100.0
Si 25.0 -5.0 100.0
Si 30.0 -5.0 100.0
Fe 35.0 -5.0 100.0
Si -20.0 15.0 100.0
Si -14.999999999999998 15.0 100.0
Fe -9.999999999999998 15.0 100.0
Si -4.999999999999999 15.0 100.0
Si -20.0 20.0 100.0
Si -14.999999999999998 20.0 100.0
Si -9.999999999999998 20.0 100.0
Si -4.999999999999999 20.0 100.0
Si -20.0 25.0 100.0
Si -14.999999999999998 25.0 100.0
Si -9.999999999999998 25.0 100.0
Fe -4.999999999999998 25.0 100.0
Si 9.18485099360515e-16 15.0 100.0
Si 5.000000000000001 15.0 100.0
Fe 10.000000000000002 15.0 100.0
Si 15.000000000000002 15.0 100.0
Si 1.2246467991473533e-15 20.0 100.0
Si 5.000000000000001 20.0 100.0
Si 10.000000000000002 20.0 100.0
Si 15.000000000000002 20.0 100.0
Si 1.5308084989341915e-15 25.0 100.0
Si 5.000000000000002 25.0 100.0
Si 10.000000000000002 25.0 100.0
Fe 15.000000000000002 25.0 100.0
Si 20.0 15.0 100.0
Si 25.0 15.0 100.0
Fe 30.0 15.0 100.0
Si 35.0 15.0 100.0
Si 20.0 20.0 100.0
Si 25.0 20.0 100.0
Si 30.0 20.0 100.0
Si 35.0 20.0 100.0
Si 20.0 25.0 100.0
Si 25.0 25.0 100.0
Si 30.0 25.0 100.0
Fe 35.0 25.0 100.0
